final/Texas2k_series24_cases_with_dynamics/Texas2k_series24_case2_2016lowload/Texas2k_series24_case2_2016lowload.RAW
@!IC, SBASE,REV,XFRRAT,NXFRAT,BASFRQ
 0,    100.00, 34, 0, 0, 60.00       / August 30, 2024 16:05:41; Simulator Version 23; BuildDate 2023_10_25
Texas2k_series24_case2_2016lowload
This is a synthetic power system model that does NOT represent the actual grid. 
GENERAL, THRSHZ=0.0002, PQBRAK=0.7, BLOWUP=5.0
GAUSS, ITMX=100, ACCP=1.6, ACCQ=1.6, ACCM=1.0, TOL=0.0001
NEWTON, ITMXN=50, ACCN=1.0, TOLN=0.1, VCTOLQ=0.1, VCTOLV=0.00001, DVLIM=0.99, NDVFCT=0.99
ADJUST, ADJTHR=0.005, ACCTAP=1.0, TAPLIM=0.05, SWVBND=100.0, MXTPSS=99, MXSWIM=10
TYSL, ITMXTY=20, ACCTY=1.0, TOLTY=0.00001
SOLVER, FNSL, ACTAPS=1, AREAIN=1, PHSHFT=1, DCTAPS=1, SWSHNT=1, FLATST=0, VARLIM=0, NONDIV=0
RATING, 1, "      ", "                                "
RATING, 2, "      ", "                                "
RATING, 3, "      ", "                                "
RATING, 4, "      ", "                                "
RATING, 5, "      ", "                                "
RATING, 6, "      ", "                                "
RATING, 7, "      ", "                                "
RATING, 8, "      ", "                                "
RATING, 9, "      ", "                                "
RATING,10, "      ", "                                "
RATING,11, "      ", "                                "
RATING,12, "      ", "                                "
 0 / END OF SYSTEM-WIDE DATA, BEGIN BUS DATA
@!   I,'NAME        ', BASKV, IDE,AREA,ZONE,OWNER, VM,        VA,    NVHI,   NVLO,   EVHI,   EVLO
 1001,'ODESSA 2 0  ', 115.0000,1,   1,   9,   1,0.99571514, -16.876965, 1.10000, 0.90000, 1.10000, 0.90000
 1002,'PRESIDIO 2 0', 115.0000,1,   1,   9,   1,1.02479959,  -4.052420, 1.10000, 0.90000, 1.10000, 0.90000
 1003,'O DONNELL ~1', 115.0000,1,   1,   9,   1,1.01189935,  -9.661536, 1.10000, 0.90000, 1.10000, 0.90000
 1004,'O DONNELL ~2', 230.0000,2,   1,   9,   1,1.01760602, -12.011594, 1.10000, 0.90000, 1.10000, 0.90000
 1005,'BIG SPRING~8', 115.0000,1,   1,   9,   1,1.01032257,  -3.811278, 1.10000, 0.90000, 1.10000, 0.90000
 1006,'BIG SPRING~9',  13.8000,2,   1,   9,   1,1.00391400,  -1.656353, 1.10000, 0.90000, 1.10000, 0.90000
 1007,'VAN HORN 0  ', 115.0000,1,   1,   9,   1,1.02999997,  -5.479713, 1.10000, 0.90000, 1.10000, 0.90000
 1008,'IRAAN 2 0   ', 115.0000,1,   1,   9,   1,1.02400887,   2.920111, 1.10000, 0.90000, 1.10000, 0.90000
 1009,'IRAAN 2 1   ',  13.8000,2,   1,   9,   1,1.01402712,   6.184999, 1.10000, 0.90000, 1.10000, 0.90000
 1010,'PRESIDIO 1 0', 115.0000,1,   1,   9,   1,1.02999997,  -2.981436, 1.10000, 0.90000, 1.10000, 0.90000
 1011,'PRESIDIO 1 1',  22.0000,2,   1,   9,   1,1.03021789,  -1.228473, 1.10000, 0.90000, 1.10000, 0.90000
 1012,'SANDERSON 0 ', 115.0000,1,   1,   9,   1,1.02225304, -12.469979, 1.10000, 0.90000, 1.10000, 0.90000
 1013,'MONAHANS 2 0', 115.0000,1,   1,   9,   1,1.01530039,  -6.552866, 1.10000, 0.90000, 1.10000, 0.90000
 1014,'GRANDFALLS 0', 115.0000,1,   1,   9,   1,1.01833475,  -2.395126, 1.10000, 0.90000, 1.10000, 0.90000
 1015,'MARFA 0     ', 115.0000,1,   1,   9,   1,1.03274739,  -4.452477, 1.10000, 0.90000, 1.10000, 0.90000
 1016,'GARDEN CIT~1', 115.0000,1,   1,   9,   1,1.02429819,  -1.104338, 1.10000, 0.90000, 1.10000, 0.90000
 1017,'ODESSA 4 0  ', 115.0000,1,   1,   9,   1,0.99440491, -12.825955, 1.10000, 0.90000, 1.10000, 0.90000
 1018,'NOTREES 0   ', 115.0000,1,   1,   9,   1,1.00179708, -10.813917, 1.10000, 0.90000, 1.10000, 0.90000
 1019,'MIDLAND 4 0 ', 115.0000,1,   1,   9,   1,1.01235056, -16.060988, 1.10000, 0.90000, 1.10000, 0.90000
 1020,'BIG SPRING~1', 115.0000,1,   1,   9,   1,1.02631342,  -4.692221, 1.10000, 0.90000, 1.10000, 0.90000
 1021,'BIG SPRING~2',  13.8000,2,   1,   9,   1,1.00203943,   1.886934, 1.10000, 0.90000, 1.10000, 0.90000
 1022,'O DONNELL ~3', 115.0000,1,   1,   9,   1,1.01391888,  -9.045595, 1.10000, 0.90000, 1.10000, 0.90000
 1023,'O DONNELL ~4',  13.8000,2,   1,   9,   1,1.00999999,  -0.150618, 1.10000, 0.90000, 1.10000, 0.90000
 1024,'ODESSA 6 0  ', 115.0000,1,   1,   9,   1,1.00163066,  -9.204460, 1.10000, 0.90000, 1.10000, 0.90000
 1025,'BIG SPRIN~14', 115.0000,1,   1,   9,   1,1.02152824,  -3.131663, 1.10000, 0.90000, 1.10000, 0.90000
 1026,'BIG SPRIN~15',  13.8000,2,   1,   9,   1,1.00000000,   6.354955, 1.10000, 0.90000, 1.10000, 0.90000
 1027,'MIDLAND 2 0 ', 115.0000,1,   1,   9,   1,1.02338672, -14.434884, 1.10000, 0.90000, 1.10000, 0.90000
 1028,'COAHOMA 0   ', 115.0000,1,   1,   9,   1,1.01600266, -11.162254, 1.10000, 0.90000, 1.10000, 0.90000
 1029,'MIDLAND 3 0 ', 115.0000,1,   1,   9,   1,1.02078450, -12.952463, 1.10000, 0.90000, 1.10000, 0.90000
 1030,'ALPINE 0    ', 115.0000,1,   1,   9,   1,1.02415347,  -0.197760, 1.10000, 0.90000, 1.10000, 0.90000
 1031,'FORT DAVIS 0', 115.0000,1,   1,   9,   1,1.02327955,  -6.412740, 1.10000, 0.90000, 1.10000, 0.90000
 1032,'MCCAMEY 1 0 ', 115.0000,1,   1,   9,   1,1.00240862,  -1.424309, 1.10000, 0.90000, 1.10000, 0.90000
 1033,'MCCAMEY 1 1 ', 230.0000,2,   1,   9,   1,1.02632821,  -7.698300, 1.10000, 0.90000, 1.10000, 0.90000
 1034,'BIG SPRING~6', 115.0000,1,   1,   9,   1,1.00958347,  -0.647472, 1.10000, 0.90000, 1.10000, 0.90000
 1035,'BIG SPRING~7',  13.8000,2,   1,   9,   1,1.00000000,   2.640767, 1.10000, 0.90000, 1.10000, 0.90000
 1036,'CRANE 0     ', 115.0000,1,   1,   9,   1,0.99865919,  -0.071967, 1.10000, 0.90000, 1.10000, 0.90000
 1037,'ODESSA 5 0  ', 115.0000,1,   1,   9,   1,0.98808461, -15.006761, 1.10000, 0.90000, 1.10000, 0.90000
 1038,'FORT STOCK~1', 115.0000,1,   1,   9,   1,1.02199745,   3.943515, 1.10000, 0.90000, 1.10000, 0.90000
 1039,'FORT STOCK~2',  22.0000,2,   1,   9,   1,1.00154352,   9.295289, 1.10000, 0.90000, 1.10000, 0.90000
 1040,'ANDREWS 0   ', 115.0000,1,   1,   9,   1,1.00166702, -11.286428, 1.10000, 0.90000, 1.10000, 0.90000
 1041,'FORSAN 0    ', 115.0000,1,   1,   9,   1,1.00760627,  -1.897048, 1.10000, 0.90000, 1.10000, 0.90000
 1042,'FORSAN 1    ',  13.8000,1,   1,   9,   1,1.00760627,  -1.897048, 1.10000, 0.90000, 1.10000, 0.90000
 1043,'FORSAN 2    ',  13.8000,2,   1,   9,   1,1.00000000,   1.335248, 1.10000, 0.90000, 1.10000, 0.90000
 1044,'BIG LAKE 0  ', 115.0000,1,   1,   9,   1,1.01632071, -15.911327, 1.10000, 0.90000, 1.10000, 0.90000
 1045,'MIDLAND 5 0 ', 115.0000,1,   1,   9,   1,0.99679047, -16.713437, 1.10000, 0.90000, 1.10000, 0.90000
 1046,'OZONA 0     ', 115.0000,1,   1,   9,   1,1.02949309, -10.094920, 1.10000, 0.90000, 1.10000, 0.90000
 1047,'MONAHANS 1 0', 115.0000,1,   1,   9,   1,1.01220012,  -5.713198, 1.10000, 0.90000, 1.10000, 0.90000
 1048,'MONAHANS 1 1',  18.0000,1,   1,   9,   1,1.01220012,  -5.713198, 1.10000, 0.90000, 1.10000, 0.90000
 1049,'MONAHANS 1 2',  18.0000,1,   1,   9,   1,1.01220012,  -5.713198, 1.10000, 0.90000, 1.10000, 0.90000
 1050,'MONAHANS 1 3',  18.0000,2,   1,   9,   1,1.00156224,  -1.024697, 1.10000, 0.90000, 1.10000, 0.90000
 1051,'MONAHANS 1 4',  18.0000,2,   1,   9,   1,1.00000000,   0.356817, 1.10000, 0.90000, 1.10000, 0.90000
 1052,'MONAHANS 1 5',  18.0000,1,   1,   9,   1,1.01220012,  -5.713198, 1.10000, 0.90000, 1.10000, 0.90000
 1053,'MONAHANS 1 6', 230.0000,1,   1,   9,   1,1.02665937,  -9.471681, 1.10000, 0.90000, 1.10000, 0.90000
 1054,'STANTON 0   ', 115.0000,1,   1,   9,   1,1.01800358, -10.528574, 1.10000, 0.90000, 1.10000, 0.90000
 1055,'ODONNELL 0  ', 115.0000,1,   1,   9,   1,1.00805736, -10.014264, 1.10000, 0.90000, 1.10000, 0.90000
 1056,'LENORAH 0   ', 115.0000,1,   1,   9,   1,1.02999997,  -9.838105, 1.10000, 0.90000, 1.10000, 0.90000
 1057,'LENORAH 1   ',  18.0000,1,   1,   9,   1,1.02999997,  -9.838105, 1.10000, 0.90000, 1.10000, 0.90000
 1058,'IRAAN 3 0   ', 115.0000,1,   1,   9,   1,1.02652514,   0.719196, 1.10000, 0.90000, 1.10000, 0.90000
 1059,'IRAAN 3 1   ',  22.0000,1,   1,   9,   1,1.02652514,   0.719196, 1.10000, 0.90000, 1.10000, 0.90000
 1060,'IRAAN 3 2   ',  22.0000,1,   1,   9,   1,1.02652514,   0.719196, 1.10000, 0.90000, 1.10000, 0.90000
 1061,'BIG SPRIN~10', 115.0000,1,   1,   9,   1,1.01180542,  -5.191382, 1.10000, 0.90000, 1.10000, 0.90000
 1062,'BIG SPRIN~11',  13.8000,1,   1,   9,   1,1.01180542,  -5.191382, 1.10000, 0.90000, 1.10000, 0.90000
 1063,'BIG SPRIN~12',  13.8000,1,   1,   9,   1,1.01180542,  -5.191382, 1.10000, 0.90000, 1.10000, 0.90000
 1064,'ODESSA 3 0  ', 115.0000,1,   1,   9,   1,0.99062043, -17.270132, 1.10000, 0.90000, 1.10000, 0.90000
 1065,'BIG SPRING~4', 115.0000,1,   1,   9,   1,1.00953150,  -1.911545, 1.10000, 0.90000, 1.10000, 0.90000
 1066,'BIG SPRING~5',  13.8000,2,   1,   9,   1,1.00000000,   5.594905, 1.10000, 0.90000, 1.10000, 0.90000
 1067,'BIG SPRIN~13', 115.0000,1,   1,   9,   1,1.00576627,  -2.327583, 1.10000, 0.90000, 1.10000, 0.90000
 1068,'MIDLAND 1 0 ', 115.0000,1,   1,   9,   1,0.99540120,  -1.133277, 1.10000, 0.90000, 1.10000, 0.90000
 1069,'IRAAN 1 0   ', 115.0000,1,   1,   9,   1,1.02783787,   3.013320, 1.10000, 0.90000, 1.10000, 0.90000
 1070,'IRAAN 1 1   ',  13.8000,2,   1,   9,   1,1.03999996,   7.506474, 1.10000, 0.90000, 1.10000, 0.90000
 1071,'ODESSA 1 0  ', 115.0000,1,   1,   9,   1,1.00072205, -16.486917, 1.10000, 0.90000, 1.10000, 0.90000
 1072,'ODESSA 1 1  ',  18.0000,2,   1,   9,   1,1.00999999,  -7.843049, 1.10000, 0.90000, 1.10000, 0.90000
 1073,'ODESSA 1 2  ',  18.0000,2,   1,   9,   1,1.01000011,  -1.976292, 1.10000, 0.90000, 1.10000, 0.90000
 1074,'ODESSA 1 3  ',  18.0000,1,   1,   9,   1,1.00072205, -16.486917, 1.10000, 0.90000, 1.10000, 0.90000
 1075,'ODESSA 1 4  ',  18.0000,1,   1,   9,   1,1.00072205, -16.486917, 1.10000, 0.90000, 1.10000, 0.90000
 1076,'ODESSA 1 5  ',  18.0000,1,   1,   9,   1,1.00072205, -16.486917, 1.10000, 0.90000, 1.10000, 0.90000
 1077,'ODESSA 1 6  ',  18.0000,1,   1,   9,   1,1.00072205, -16.486917, 1.10000, 0.90000, 1.10000, 0.90000
 1078,'ODESSA 1 7  ',  18.0000,2,   1,   9,   1,1.00999999,  -6.873224, 1.10000, 0.90000, 1.10000, 0.90000
 1079,'ODESSA 1 8  ', 500.0000,1,   1,   9,   1,1.05050814, -32.054699, 1.10000, 0.90000, 1.10000, 0.90000
 1080,'ODESSA 1 9  ',  18.0000,1,   1,   9,   1,1.00072205, -16.486917, 1.10000, 0.90000, 1.10000, 0.90000
 1081,'ODESSA 1 10 ', 230.0000,1,   1,   9,   1,1.02999997, -10.749457, 1.10000, 0.90000, 1.10000, 0.90000
 1082,'FORT STOCK~3', 115.0000,2,   1,   9,   1,1.02480793,   5.711186, 1.10000, 0.90000, 1.10000, 0.90000
 1083,'FORT STOCK~4', 115.0000,1,   1,   9,   1,1.02639782,   1.814526, 1.10000, 0.90000, 1.10000, 0.90000
 1084,'BIG SPRING~3', 115.0000,2,   1,   9,   1,1.02950978,  -6.607840, 1.10000, 0.90000, 1.10000, 0.90000
 1085,'KERMIT 0    ', 115.0000,1,   1,   9,   1,1.01645815,  -6.607334, 1.10000, 0.90000, 1.10000, 0.90000
 1086,'PECOS 0     ', 115.0000,1,   1,   9,   1,1.02918351,  -7.920818, 1.10000, 0.90000, 1.10000, 0.90000
 1087,'SHEFFIELD 0 ', 115.0000,1,   1,   9,   1,1.02999997,  -3.934879, 1.10000, 0.90000, 1.10000, 0.90000
 1088,'MCCAMEY 2 0 ', 115.0000,2,   1,   9,   1,1.00000000,   1.772999, 1.10000, 0.90000, 1.10000, 0.90000
 1089,'LAMESA 0    ', 115.0000,1,   1,   9,   1,0.99720180, -11.018020, 1.10000, 0.90000, 1.10000, 0.90000
 1090,'GOLDSMITH 0 ', 115.0000,2,   1,   9,   1,1.01999998,  -6.583050, 1.10000, 0.90000, 1.10000, 0.90000
 1091,'RALLS 2 0   ', 161.0000,1,   1,   9,   1,1.03190732, -24.987158, 1.10000, 0.90000, 1.10000, 0.90000
 2001,'PARIS 3 0   ', 161.0000,1,   2,  11,   1,1.02841020, -49.394152, 1.10000, 0.90000, 1.10000, 0.90000
 2002,'SAVOY 0     ', 500.0000,1,   2,  11,   1,1.03369868, -48.896651, 1.10000, 0.90000, 1.10000, 0.90000
 2003,'SAVOY 1     ', 161.0000,1,   2,  11,   1,1.03206611, -50.020399, 1.10000, 0.90000, 1.10000, 0.90000
 2004,'SAVOY 2     ',  13.8000,1,   2,  11,   1,1.03369868, -48.896651, 1.10000, 0.90000, 1.10000, 0.90000
 2005,'SAVOY 3     ',  13.8000,1,   2,  11,   1,1.03369868, -48.896651, 1.10000, 0.90000, 1.10000, 0.90000
 2006,'SAVOY 4     ',  13.8000,1,   2,  11,   1,1.03369868, -48.896651, 1.10000, 0.90000, 1.10000, 0.90000
 2007,'HONEY GROV~1', 161.0000,1,   2,  11,   1,1.02893150, -49.218302, 1.10000, 0.90000, 1.10000, 0.90000
 2008,'MEMPHIS 0   ', 161.0000,1,   2,  10,   1,1.03651226, -25.954080, 1.10000, 0.90000, 1.10000, 0.90000
 2009,'IOWA PARK 0 ', 161.0000,1,   2,  11,   1,1.02999997, -36.722843, 1.10000, 0.90000, 1.10000, 0.90000
 2010,'VERNON 2 0  ', 161.0000,1,   2,  10,   1,1.02999997, -26.107939, 1.10000, 0.90000, 1.10000, 0.90000
 2011,'PANHANDLE ~2', 500.0000,1,   2,  10,   1,1.05631685, -26.634828, 1.10000, 0.90000, 1.10000, 0.90000
 2012,'PANHANDLE ~3', 161.0000,1,   2,  10,   1,1.04490757, -24.358780, 1.10000, 0.90000, 1.10000, 0.90000
 2013,'PANHANDLE ~4',  18.0000,2,   2,  10,   1,1.04812539, -24.372244, 1.10000, 0.90000, 1.10000, 0.90000
 2014,'CHILDRESS 0 ', 161.0000,1,   2,  10,   1,1.03352022, -26.267851, 1.10000, 0.90000, 1.10000, 0.90000
 2015,'FORESTBURG 0', 161.0000,1,   2,  11,   1,1.02244020, -47.024606, 1.10000, 0.90000, 1.10000, 0.90000
 2016,'SHERMAN 3 0 ', 161.0000,1,   2,  11,   1,1.02254391, -52.636983, 1.10000, 0.90000, 1.10000, 0.90000
 2017,'PANHANDLE ~7', 500.0000,1,   2,  10,   1,1.04449368, -27.834261, 1.10000, 0.90000, 1.10000, 0.90000
 2018,'PANHANDLE ~8', 161.0000,1,   2,  10,   1,1.04195619, -26.670835, 1.10000, 0.90000, 1.10000, 0.90000
 2019,'PANHANDLE ~9',  20.0000,1,   2,  10,   1,1.04449368, -27.834261, 1.10000, 0.90000, 1.10000, 0.90000
 2020,'WICHITA F~12', 161.0000,1,   2,  11,   1,1.02167559, -37.746969, 1.10000, 0.90000, 1.10000, 0.90000
 2021,'PARIS 2 0   ', 500.0000,1,   2,  11,   1,1.03643966, -47.871225, 1.10000, 0.90000, 1.10000, 0.90000
 2022,'PARIS 2 1   ', 161.0000,1,   2,  11,   1,1.03375041, -48.749287, 1.10000, 0.90000, 1.10000, 0.90000
 2023,'PARIS 2 2   ',  13.8000,1,   2,  11,   1,1.03643966, -47.871225, 1.10000, 0.90000, 1.10000, 0.90000
 2024,'PARIS 2 3   ',  13.8000,2,   2,  11,   1,1.03199160, -45.856094, 1.10000, 0.90000, 1.10000, 0.90000
 2025,'WICHITA F~10', 161.0000,1,   2,  11,   1,1.02012897, -37.219080, 1.10000, 0.90000, 1.10000, 0.90000
 2026,'WHEELER 0   ', 161.0000,1,   2,  10,   1,1.04500139, -25.338465, 1.10000, 0.90000, 1.10000, 0.90000
 2027,'DEPORT 0    ', 161.0000,1,   2,  11,   1,1.02960813, -49.580230, 1.10000, 0.90000, 1.10000, 0.90000
 2028,'WICHITA FA~9', 161.0000,1,   2,  11,   1,1.02022326, -38.640959, 1.10000, 0.90000, 1.10000, 0.90000
 2029,'SILVERTON 0 ', 161.0000,1,   2,  10,   1,1.03564894, -25.951416, 1.10000, 0.90000, 1.10000, 0.90000
 2030,'BONHAM 0    ', 161.0000,1,   2,  11,   1,1.01765168, -50.734498, 1.10000, 0.90000, 1.10000, 0.90000
 2031,'MATADOR 0   ', 161.0000,1,   2,  10,   1,1.02759194, -20.882847, 1.10000, 0.90000, 1.10000, 0.90000
 2032,'ARTHUR CIT~1', 161.0000,1,   2,  11,   1,1.03060901, -48.984621, 1.10000, 0.90000, 1.10000, 0.90000
 2033,'LEONARD 0   ', 161.0000,1,   2,  11,   1,1.01844418, -51.148773, 1.10000, 0.90000, 1.10000, 0.90000
 2034,'GORDONVILL~1', 161.0000,1,   2,  11,   1,1.02542770, -52.489963, 1.10000, 0.90000, 1.10000, 0.90000
 2035,'KNOX CITY 0 ', 161.0000,1,   2,  10,   1,1.02490747, -20.282170, 1.10000, 0.90000, 1.10000, 0.90000
 2036,'WICHITA F~13', 161.0000,1,   2,  11,   1,1.02226460, -37.417955, 1.10000, 0.90000, 1.10000, 0.90000
 2037,'LINDSAY 0   ', 161.0000,1,   2,  11,   1,1.02823257, -47.178794, 1.10000, 0.90000, 1.10000, 0.90000
 2038,'ECTOR 0     ', 161.0000,1,   2,  11,   1,1.02977109, -50.271476, 1.10000, 0.90000, 1.10000, 0.90000
 2039,'SUNSET 0    ', 161.0000,1,   2,  11,   1,1.01657164, -45.732809, 1.10000, 0.90000, 1.10000, 0.90000
 2040,'CLARKSVILL~1', 161.0000,1,   2,  11,   1,1.03332281, -49.124442, 1.10000, 0.90000, 1.10000, 0.90000
 2041,'PANHANDLE ~5', 161.0000,1,   2,  10,   1,1.04606140, -22.225912, 1.10000, 0.90000, 1.10000, 0.90000
 2042,'PANHANDLE ~6',  18.0000,2,   2,  10,   1,1.03765416, -19.739571, 1.10000, 0.90000, 1.10000, 0.90000
 2043,'SADLER 0    ', 161.0000,1,   2,  11,   1,1.02415395, -52.564634, 1.10000, 0.90000, 1.10000, 0.90000
 2044,'WHITESBORO 0', 161.0000,1,   2,  11,   1,1.02745688, -49.211762, 1.10000, 0.90000, 1.10000, 0.90000
 2045,'SHEPPARD A~1', 161.0000,1,   2,  11,   1,1.02100492, -37.957209, 1.10000, 0.90000, 1.10000, 0.90000
 2046,'POTTSBORO 0 ', 161.0000,1,   2,  11,   1,1.02702057, -52.379877, 1.10000, 0.90000, 1.10000, 0.90000
 2047,'BELLS 0     ', 161.0000,1,   2,  11,   1,1.03114045, -50.456062, 1.10000, 0.90000, 1.10000, 0.90000
 2048,'CROSBYTON 0 ', 161.0000,1,   2,  10,   1,1.03192532, -23.746541, 1.10000, 0.90000, 1.10000, 0.90000
 2049,'ELECTRA 0   ', 161.0000,1,   2,  10,   1,1.02361536, -31.758006, 1.10000, 0.90000, 1.10000, 0.90000
 2050,'PATTONVILL~1', 161.0000,1,   2,  11,   1,1.02419722, -50.627435, 1.10000, 0.90000, 1.10000, 0.90000
 2051,'HENRIETTA 0 ', 161.0000,1,   2,  11,   1,1.01790130, -42.103079, 1.10000, 0.90000, 1.10000, 0.90000
 2052,'PANHANDLE~13', 161.0000,1,   2,  10,   1,1.03804708, -25.475962, 1.10000, 0.90000, 1.10000, 0.90000
 2053,'BOWIE 0     ', 161.0000,1,   2,  11,   1,1.01809514, -45.357510, 1.10000, 0.90000, 1.10000, 0.90000
 2054,'WICHITA FA~1', 500.0000,1,   2,  11,   1,1.02659988, -37.121118, 1.10000, 0.90000, 1.10000, 0.90000
 2055,'WICHITA FA~2', 161.0000,1,   2,  11,   1,1.02364147, -37.362067, 1.10000, 0.90000, 1.10000, 0.90000
 2056,'WICHITA FA~3',  18.0000,1,   2,  11,   1,1.02659988, -37.121118, 1.10000, 0.90000, 1.10000, 0.90000
 2057,'WICHITA FA~4',  18.0000,1,   2,  11,   1,1.02659988, -37.121118, 1.10000, 0.90000, 1.10000, 0.90000
 2058,'WHITE DEER 0', 161.0000,1,   2,  10,   1,1.04654300, -21.785069, 1.10000, 0.90000, 1.10000, 0.90000
 2059,'WHITE DEER 1',  13.8000,2,   2,  10,   1,1.03678274, -18.555442, 1.10000, 0.90000, 1.10000, 0.90000
 2060,'ROXTON 0    ', 161.0000,1,   2,  11,   1,1.02546155, -50.038598, 1.10000, 0.90000, 1.10000, 0.90000
 2061,'VERNON 1 0  ', 161.0000,1,   2,  10,   1,1.02467847, -27.853732, 1.10000, 0.90000, 1.10000, 0.90000
 2062,'VERNON 1 1  ',  18.0000,2,   2,  10,   1,1.01999998, -25.557130, 1.10000, 0.90000, 1.10000, 0.90000
 2063,'DENISON 2 0 ', 161.0000,1,   2,  11,   1,1.02999997, -52.138454, 1.10000, 0.90000, 1.10000, 0.90000
 2064,'SUMNER 0    ', 161.0000,1,   2,  11,   1,1.02943528, -49.400443, 1.10000, 0.90000, 1.10000, 0.90000
 2065,'GAINESVILL~1', 161.0000,1,   2,  11,   1,1.02999997, -48.641899, 1.10000, 0.90000, 1.10000, 0.90000
 2066,'ASPERMONT 0 ', 161.0000,1,   2,  10,   1,1.02256262, -17.629459, 1.10000, 0.90000, 1.10000, 0.90000
 2067,'WICHITA F~11', 161.0000,1,   2,  11,   1,1.01744974, -36.871062, 1.10000, 0.90000, 1.10000, 0.90000
 2068,'WINDTHORST 0', 161.0000,1,   2,  11,   1,1.01655149, -34.581442, 1.10000, 0.90000, 1.10000, 0.90000
 2069,'HOWE 0      ', 161.0000,1,   2,  11,   1,1.02999997, -52.053746, 1.10000, 0.90000, 1.10000, 0.90000
 2070,'ARCHER 2 0  ', 161.0000,1,   2,  11,   1,1.01721096, -34.094146, 1.10000, 0.90000, 1.10000, 0.90000
 2071,'ARCHER 2 1  ',  18.0000,2,   2,  11,   1,1.00435114, -30.474788, 1.10000, 0.90000, 1.10000, 0.90000
 2072,'COLLINSVIL~1', 161.0000,1,   2,  11,   1,1.02917159, -51.108738, 1.10000, 0.90000, 1.10000, 0.90000
 2073,'JAYTON 0    ', 161.0000,1,   2,  10,   1,1.02164471, -15.432555, 1.10000, 0.90000, 1.10000, 0.90000
 2074,'JAYTON 1    ', 115.0000,1,   2,  10,   1,1.01014102, -13.099057, 1.10000, 0.90000, 1.10000, 0.90000
 2075,'JAYTON 2    ', 115.0000,1,   2,  10,   1,1.01014102, -13.099057, 1.10000, 0.90000, 1.10000, 0.90000
 2076,'JAYTON 3    ',  24.0000,2,   2,  10,   1,1.02687812, -14.536657, 1.10000, 0.90000, 1.10000, 0.90000
 2077,'MUENSTER 1 0', 161.0000,1,   2,  11,   1,1.02841592, -45.340695, 1.10000, 0.90000, 1.10000, 0.90000
 2078,'MUENSTER 1 1',  13.8000,2,   2,  11,   1,1.01999998, -42.035552, 1.10000, 0.90000, 1.10000, 0.90000
 2079,'PADUCAH 0   ', 161.0000,1,   2,  10,   1,1.03246462, -25.232747, 1.10000, 0.90000, 1.10000, 0.90000
 2080,'NOCONA 0    ', 161.0000,1,   2,  11,   1,1.01964939, -43.790136, 1.10000, 0.90000, 1.10000, 0.90000
 2081,'DODD CITY 0 ', 161.0000,1,   2,  11,   1,1.02545583, -50.697820, 1.10000, 0.90000, 1.10000, 0.90000
 2082,'WICHITA FA~5', 161.0000,1,   2,  11,   1,1.02239859, -37.367757, 1.10000, 0.90000, 1.10000, 0.90000
 2083,'WICHITA FA~6',  20.0000,1,   2,  11,   1,1.02239859, -37.367757, 1.10000, 0.90000, 1.10000, 0.90000
 2084,'WICHITA FA~7',  20.0000,1,   2,  11,   1,1.02239859, -37.367757, 1.10000, 0.90000, 1.10000, 0.90000
 2085,'WICHITA FA~8',  20.0000,1,   2,  11,   1,1.02239859, -37.367757, 1.10000, 0.90000, 1.10000, 0.90000
 2086,'MONTAGUE 0  ', 161.0000,1,   2,  11,   1,1.01794326, -44.999387, 1.10000, 0.90000, 1.10000, 0.90000
 2087,'SPUR 0      ', 161.0000,1,   2,  10,   1,1.02403808, -18.148407, 1.10000, 0.90000, 1.10000, 0.90000
 2088,'ARCHER 1 0  ', 161.0000,1,   2,  11,   1,1.01659131, -34.256363, 1.10000, 0.90000, 1.10000, 0.90000
 2089,'ARCHER 1 1  ',  24.0000,2,   2,  11,   1,1.00393796, -30.711140, 1.10000, 0.90000, 1.10000, 0.90000
 2090,'ANNONA 0    ', 161.0000,1,   2,  11,   1,1.03080821, -49.823252, 1.10000, 0.90000, 1.10000, 0.90000
 2091,'SEYMOUR 0   ', 161.0000,1,   2,  10,   1,1.02704680, -23.462799, 1.10000, 0.90000, 1.10000, 0.90000
 2092,'DENISON 1 0 ', 161.0000,1,   2,  11,   1,1.02960396, -51.337577, 1.10000, 0.90000, 1.10000, 0.90000
 2093,'PANHANDLE~10', 161.0000,1,   2,  10,   1,1.04387581, -25.449722, 1.10000, 0.90000, 1.10000, 0.90000
 2094,'PANHANDLE~11',  13.8000,1,   2,  10,   1,1.04387581, -25.449722, 1.10000, 0.90000, 1.10000, 0.90000
 2095,'PANHANDLE~12',  13.8000,1,   2,  10,   1,1.04387581, -25.449722, 1.10000, 0.90000, 1.10000, 0.90000
 2096,'RALLS 1 0   ', 500.0000,1,   2,  10,   1,1.02970576, -26.758376, 1.10000, 0.90000, 1.10000, 0.90000
 2097,'RALLS 1 1   ', 230.0000,1,   2,  10,   1,1.02626228, -25.548145, 1.10000, 0.90000, 1.10000, 0.90000
 2098,'RALLS 1 2   ', 161.0000,1,   2,  10,   1,1.03085911, -25.067026, 1.10000, 0.90000, 1.10000, 0.90000
 2099,'RALLS 1 3   ',  18.0000,2,   2,  10,   1,1.02923799, -26.617162, 1.10000, 0.90000, 1.10000, 0.90000
 2100,'RALLS 1 4   ',  18.0000,2,   2,  10,   1,1.02050257, -24.150869, 1.10000, 0.90000, 1.10000, 0.90000
 2101,'SHERMAN 1 0 ', 500.0000,1,   2,  11,   1,1.03152072, -49.003547, 1.10000, 0.90000, 1.10000, 0.90000
 2102,'SHERMAN 1 1 ', 161.0000,1,   2,  11,   1,1.02923441, -49.543385, 1.10000, 0.90000, 1.10000, 0.90000
 2103,'SHERMAN 1 2 ',  20.0000,1,   2,  11,   1,1.03152072, -49.003547, 1.10000, 0.90000, 1.10000, 0.90000
 2104,'SHERMAN 1 3 ',  20.0000,1,   2,  11,   1,1.03152072, -49.003547, 1.10000, 0.90000, 1.10000, 0.90000
 2105,'SHERMAN 1 4 ',  20.0000,1,   2,  11,   1,1.03152072, -49.003547, 1.10000, 0.90000, 1.10000, 0.90000
 2106,'WHITEWRIGH~1', 161.0000,1,   2,  11,   1,1.01633108, -51.283123, 1.10000, 0.90000, 1.10000, 0.90000
 2107,'SHERMAN 2 0 ', 161.0000,1,   2,  11,   1,1.02491200, -49.892664, 1.10000, 0.90000, 1.10000, 0.90000
 2108,'ROCHESTER 0 ', 161.0000,1,   2,  10,   1,1.02161551, -32.381056, 1.10000, 0.90000, 1.10000, 0.90000
 2109,'BURKBURNET~1', 161.0000,1,   2,  11,   1,1.02367902, -37.664371, 1.10000, 0.90000, 1.10000, 0.90000
...
0 / END OF BUS DATA, BEGIN LOAD DATA
@!   I,'ID',STAT,AREA,ZONE,      PL,        QL,        IP,        IQ,        YP,        YQ, OWNER,SCALE,INTRPT,  DGENP,     DGENQ, DGENM
 1001,'1 ',1,   1,   9,    11.430,     5.888,     0.000,     0.000,     0.000,     0.000,   1,1, 0,     0.000,     0.000, 1
 1002,'1 ',1,   1,   9,     8.478,     4.367,     0.000,     0.000,     0.000,     0.000,   1,1, 0,     0.000,     0.000, 1
 1007,'1 ',1,   1,   9,     3.854,     1.986,     0.000,     0.000,     0.000,     0.000,   1,1, 0,     0.000,     0.000, 1
 1012,'1 ',1,   1,   9,     1.642,     0.846,     0.000,     0.000,     0.000,     0.000,   1,1, 0,     0.000,     0.000, 1
 1013,'1 ',1,   1,   9,     0.281,     0.144,     0.000,     0.000,     0.000,     0.000,   1,1, 0,     0.000,     0.000, 1
 1013,'2 ',1,   1,   9,     0.835,     0.430,     0.000,     0.000,     0.000,     0.000,   1,1, 0,     0.000,     0.000, 1
 1013,'3 ',1,   1,   9,    14.959,     7.706,     0.000,     0.000,     0.000,     0.000,   1,1, 0,     0.000,     0.000, 1
 1014,'1 ',1,   1,   9,     1.221,     0.629,     0.000,     0.000,     0.000,     0.000,   1,1, 0,     0.000,     0.000, 1
 1015,'1 ',1,   1,   9,     4.130,     2.128,     0.000,     0.000,     0.000,     0.000,   1,1, 0,     0.000,     0.000, 1
 1016,'1 ',1,   1,   9,     1.589,     0.819,     0.000,     0.000,     0.000,     0.000,   1,1, 0,     0.000,     0.000, 1
 1017,'1 ',1,   1,   9,    10.090,     5.198,     0.000,     0.000,     0.000,     0.000,   1,1, 0,     0.000,     0.000, 1
 1018,'1 ',1,   1,   9,     0.038,     0.020,     0.000,     0.000,     0.000,     0.000,   1,1, 0,     0.000,     0.000, 1
 1019,'1 ',1,   1,   9,    33.977,    17.503,     0.000,     0.000,     0.000,     0.000,   1,1, 0,     0.000,     0.000, 1
 1024,'1 ',1,   1,   9,    34.671,    17.861,     0.000,     0.000,     0.000,     0.000,   1,1, 0,     0.000,     0.000, 1
 1027,'1 ',1,   1,   9,     0.332,     0.171,     0.000,     0.000,     0.000,     0.000,   1,1, 0,     0.000,     0.000, 1
 1027,'2 ',1,   1,   9,    55.334,    28.506,     0.000,     0.000,     0.000,     0.000,   1,1, 0,     0.000,     0.000, 1
 1028,'1 ',1,   1,   9,     0.784,     0.404,     0.000,     0.000,     0.000,     0.000,   1,1, 0,     0.000,     0.000, 1
 1028,'2 ',1,   1,   9,     0.414,     0.213,     0.000,     0.000,     0.000,     0.000,   1,1, 0,     0.000,     0.000, 1
 1028,'3 ',1,   1,   9,     2.694,     1.388,     0.000,     0.000,     0.000,     0.000,   1,1, 0,     0.000,     0.000, 1
 1028,'4 ',1,   1,   9,     1.615,     0.832,     0.000,     0.000,     0.000,     0.000,   1,1, 0,     0.000,     0.000, 1
 1029,'1 ',1,   1,   9,    45.751,    23.569,     0.000,     0.000,     0.000,     0.000,   1,1, 0,     0.000,     0.000, 1
 1030,'1 ',1,   1,   9,    12.675,     6.530,     0.000,     0.000,     0.000,     0.000,   1,1, 0,     0.000,     0.000, 1
 1030,'2 ',1,   1,   9,     0.870,     0.448,     0.000,     0.000,     0.000,     0.000,   1,1, 0,     0.000,     0.000, 1
 1031,'1 ',1,   1,   9,     5.085,     2.620,     0.000,     0.000,     0.000,     0.000,   1,1, 0,     0.000,     0.000, 1
 1036,'1 ',1,   1,   9,     0.559,     0.288,     0.000,     0.000,     0.000,     0.000,   1,1, 0,     0.000,     0.000, 1
 1036,'2 ',1,   1,   9,     6.918,     3.564,     0.000,     0.000,     0.000,     0.000,   1,1, 0,     0.000,     0.000, 1
 1037,'1 ',1,   1,   9,    56.230,    28.967,     0.000,     0.000,     0.000,     0.000,   1,1, 0,     0.000,     0.000, 1
 1040,'1 ',1,   1,   9,    24.397,    12.568,     0.000,     0.000,     0.000,     0.000,   1,1, 0,     0.000,     0.000, 1
 1044,'1 ',1,   1,   9,     2.482,     1.278,     0.000,     0.000,     0.000,     0.000,   1,1, 0,     0.000,     0.000, 1
 1044,'2 ',1,   1,   9,     5.594,     2.881,     0.000,     0.000,     0.000,     0.000,   1,1, 0,     0.000,     0.000, 1
 1045,'1 ',1,   1,   9,    54.209,    27.926,     0.000,     0.000,     0.000,     0.000,   1,1, 0,     0.000,     0.000, 1
 1046,'1 ',1,   1,   9,     0.003,     0.002,     0.000,     0.000,     0.000,     0.000,   1,1, 0,     0.000,     0.000, 1
 1046,'2 ',1,   1,   9,     6.093,     3.139,     0.000,     0.000,     0.000,     0.000,   1,1, 0,     0.000,     0.000, 1
 1054,'1 ',1,   1,   9,     0.977,     0.503,     0.000,     0.000,     0.000,     0.000,   1,1, 0,     0.000,     0.000, 1
 1054,'2 ',1,   1,   9,     0.285,     0.147,     0.000,     0.000,     0.000,     0.000,   1,1, 0,     0.000,     0.000, 1
 1054,'3 ',1,   1,   9,     6.981,     3.596,     0.000,     0.000,     0.000,     0.000,   1,1, 0,     0.000,     0.000, 1
 1055,'1 ',1,   1,   9,     2.188,     1.127,     0.000,     0.000,     0.000,     0.000,   1,1, 0,     0.000,     0.000, 1
 1058,'1 ',1,   1,   9,     2.247,     1.158,     0.000,     0.000,     0.000,     0.000,   1,1, 0,     0.000,     0.000, 1
 1058,'2 ',1,   1,   9,     5.153,     2.655,     0.000,     0.000,     0.000,     0.000,   1,1, 0,     0.000,     0.000, 1
 1064,'1 ',1,   1,   9,     3.625,     1.867,     0.000,     0.000,     0.000,     0.000,   1,1, 0,     0.000,     0.000, 1
 1064,'2 ',1,   1,   9,    64.442,    33.198,     0.000,     0.000,     0.000,     0.000,   1,1, 0,     0.000,     0.000, 1
 1067,'1 ',1,   1,   9,    55.852,    28.773,     0.000,     0.000,     0.000,     0.000,   1,1, 0,     0.000,     0.000, 1
 1068,'1 ',1,   1,   9,     0.380,     0.195,     0.000,     0.000,     0.000,     0.000,   1,1, 0,     0.000,     0.000, 1
 1068,'2 ',1,   1,   9,    32.292,    16.635,     0.000,     0.000,     0.000,     0.000,   1,1, 0,     0.000,     0.000, 1
 1071,'1 ',1,   1,   9,    50.305,    25.915,     0.000,     0.000,     0.000,     0.000,   1,1, 0,     0.000,     0.000, 1
 1083,'1 ',1,   1,   9,    21.970,    11.318,     0.000,     0.000,     0.000,     0.000,   1,1, 0,     0.000,     0.000, 1
 1085,'1 ',1,   1,   9,     1.607,     0.828,     0.000,     0.000,     0.000,     0.000,   1,1, 0,     0.000,     0.000, 1
 1085,'2 ',1,   1,   9,    10.106,     5.206,     0.000,     0.000,     0.000,     0.000,   1,1, 0,     0.000,     0.000, 1
 1086,'1 ',1,   1,   9,    21.820,    11.240,     0.000,     0.000,     0.000,     0.000,   1,1, 0,     0.000,     0.000, 1
 1087,'1 ',1,   1,   9,     0.500,     0.258,     0.000,     0.000,     0.000,     0.000,   1,1, 0,     0.000,     0.000, 1
 1089,'1 ',1,   1,   9,     0.457,     0.235,     0.000,     0.000,     0.000,     0.000,   1,1, 0,     0.000,     0.000, 1
 1089,'2 ',1,   1,   9,    21.876,    11.269,     0.000,     0.000,     0.000,     0.000,   1,1, 0,     0.000,     0.000, 1
 1091,'1 ',1,   1,   9,     2.592,     1.335,     0.000,     0.000,     0.000,     0.000,   1,1, 0,     0.000,     0.000, 1
 1091,'2 ',1,   1,   9,     3.800,     1.958,     0.000,     0.000,     0.000,     0.000,   1,1, 0,     0.000,     0.000, 1
 2001,'1 ',1,   2,  11,     7.869,     4.054,     0.000,     0.000,     0.000,     0.000,   1,1, 0,     0.000,     0.000, 1
 2001,'2 ',1,   2,  11,    18.728,     9.647,     0.000,     0.000,     0.000,     0.000,   1,1, 0,     0.000,     0.000, 1
 2007,'1 ',1,   2,  11,     5.247,     2.703,     0.000,     0.000,     0.000,     0.000,   1,1, 0,     0.000,     0.000, 1
 2008,'1 ',1,   2,  10,     4.434,     2.284,     0.000,     0.000,     0.000,     0.000,   1,1, 0,     0.000,     0.000, 1
 2009,'1 ',1,   2,  11,    21.524,    11.088,     0.000,     0.000,     0.000,     0.000,   1,1, 0,     0.000,     0.000, 1
 2010,'1 ',1,   2,  10,     2.808,     1.447,     0.000,     0.000,     0.000,     0.000,   1,1, 0,     0.000,     0.000, 1
 2010,'2 ',1,   2,  10,     5.283,     2.722,     0.000,     0.000,     0.000,     0.000,   1,1, 0,     0.000,     0.000, 1
 2010,'3 ',1,   2,  10,     1.610,     0.830,     0.000,     0.000,     0.000,     0.000,   1,1, 0,     0.000,     0.000, 1
 2010,'4 ',1,   2,  10,     0.106,     0.054,     0.000,     0.000,     0.000,     0.000,   1,1, 0,     0.000,     0.000, 1
 2010,'5 ',1,   2,  10,    21.435,    11.042,     0.000,     0.000,     0.000,     0.000,   1,1, 0,     0.000,     0.000, 1
 2014,'1 ',1,   2,  10,     1.993,     1.027,     0.000,     0.000,     0.000,     0.000,   1,1, 0,     0.000,     0.000, 1
 2014,'2 ',1,   2,  10,    11.992,     6.178,     0.000,     0.000,     0.000,     0.000,   1,1, 0,     0.000,     0.000, 1
 2015,'1 ',1,   2,  11,     2.577,     1.328,     0.000,     0.000,     0.000,     0.000,   1,1, 0,     0.000,     0.000, 1
 2016,'1 ',1,   2,  11,    38.097,    19.626,     0.000,     0.000,     0.000,     0.000,   1,1, 0,     0.000,     0.000, 1
 2020,'1 ',1,   2,  11,    26.385,    13.592,     0.000,     0.000,     0.000,     0.000,   1,1, 0,     0.000,     0.000, 1
 2022,'1 ',1,   2,  11,     6.361,     3.277,     0.000,     0.000,     0.000,     0.000,   1,1, 0,     0.000,     0.000, 1
 2025,'1 ',1,   2,  11,    21.790,    11.225,     0.000,     0.000,     0.000,     0.000,   1,1, 0,     0.000,     0.000, 1
 2026,'1 ',1,   2,  10,     1.381,     0.711,     0.000,     0.000,     0.000,     0.000,   1,1, 0,     0.000,     0.000, 1
 2026,'2 ',1,   2,  10,     0.521,     0.269,     0.000,     0.000,     0.000,     0.000,   1,1, 0,     0.000,     0.000, 1
 2026,'3 ',1,   2,  10,     3.945,     2.032,     0.000,     0.000,     0.000,     0.000,   1,1, 0,     0.000,     0.000, 1
 2026,'4 ',1,   2,  10,     4.366,     2.249,     0.000,     0.000,     0.000,     0.000,   1,1, 0,     0.000,     0.000, 1
 2027,'1 ',1,   2,  11,     1.955,     1.007,     0.000,     0.000,     0.000,     0.000,   1,1, 0,     0.000,     0.000, 1
 2028,'1 ',1,   2,  11,     7.831,     4.034,     0.000,     0.000,     0.000,     0.000,   1,1, 0,     0.000,     0.000, 1
 2029,'1 ',1,   2,  10,     1.761,     0.907,     0.000,     0.000,     0.000,     0.000,   1,1, 0,     0.000,     0.000, 1
 2030,'1 ',1,   2,  11,     2.152,     1.108,     0.000,     0.000,     0.000,     0.000,   1,1, 0,     0.000,     0.000, 1
 2030,'2 ',1,   2,  11,    23.778,    12.249,     0.000,     0.000,     0.000,     0.000,   1,1, 0,     0.000,     0.000, 1
 2031,'1 ',1,   2,  10,     0.432,     0.223,     0.000,     0.000,     0.000,     0.000,   1,1, 0,     0.000,     0.000, 1
 2031,'2 ',1,   2,  10,     0.700,     0.360,     0.000,     0.000,     0.000,     0.000,   1,1, 0,     0.000,     0.000, 1
 2031,'3 ',1,   2,  10,     2.039,     1.051,     0.000,     0.000,     0.000,     0.000,   1,1, 0,     0.000,     0.000, 1
 2032,'1 ',1,   2,  11,     1.845,     0.950,     0.000,     0.000,     0.000,     0.000,   1,1, 0,     0.000,     0.000, 1
 2033,'1 ',1,   2,  11,     0.716,     0.369,     0.000,     0.000,     0.000,     0.000,   1,1, 0,     0.000,     0.000, 1
 2033,'2 ',1,   2,  11,     6.749,     3.477,     0.000,     0.000,     0.000,     0.000,   1,1, 0,     0.000,     0.000, 1
 2034,'1 ',1,   2,  11,     2.937,     1.513,     0.000,     0.000,     0.000,     0.000,   1,1, 0,     0.000,     0.000, 1
 2035,'1 ',1,   2,  10,     2.282,     1.176,     0.000,     0.000,     0.000,     0.000,   1,1, 0,     0.000,     0.000, 1
 2035,'2 ',1,   2,  10,     0.294,     0.151,     0.000,     0.000,     0.000,     0.000,   1,1, 0,     0.000,     0.000, 1
 2036,'1 ',1,   2,  11,    22.872,    11.783,     0.000,     0.000,     0.000,     0.000,   1,1, 0,     0.000,     0.000, 1
 2037,'1 ',1,   2,  11,     0.380,     0.195,     0.000,     0.000,     0.000,     0.000,   1,1, 0,     0.000,     0.000, 1
 2037,'2 ',1,   2,  11,     1.546,     0.796,     0.000,     0.000,     0.000,     0.000,   1,1, 0,     0.000,     0.000, 1
 2038,'1 ',1,   2,  11,     1.432,     0.738,     0.000,     0.000,     0.000,     0.000,   1,1, 0,     0.000,     0.000, 1
 2039,'1 ',1,   2,  11,     3.057,     1.575,     0.000,     0.000,     0.000,     0.000,   1,1, 0,     0.000,     0.000, 1
 2040,'1 ',1,   2,  11,     8.747,     4.506,     0.000,     0.000,     0.000,     0.000,   1,1, 0,     0.000,     0.000, 1
 2043,'1 ',1,   2,  11,     2.330,     1.200,     0.000,     0.000,     0.000,     0.000,   1,1, 0,     0.000,     0.000, 1
 2044,'1 ',1,   2,  11,    15.073,     7.765,     0.000,     0.000,     0.000,     0.000,   1,1, 0,     0.000,     0.000, 1
 2045,'1 ',1,   2,  11,    12.433,     6.405,     0.000,     0.000,     0.000,     0.000,   1,1, 0,     0.000,     0.000, 1
 2046,'1 ',1,   2,  11,    12.174,     6.271,     0.000,     0.000,     0.000,     0.000,   1,1, 0,     0.000,     0.000, 1
 2047,'1 ',1,   2,  11,     5.174,     2.666,     0.000,     0.000,     0.000,     0.000,   1,1, 0,     0.000,     0.000, 1
 2047,'2 ',1,   2,  11,     3.051,     1.572,     0.000,     0.000,     0.000,     0.000,   1,1, 0,     0.000,     0.000, 1
 2048,'1 ',1,   2,  10,     3.529,     1.818,     0.000,     0.000,     0.000,     0.000,   1,1, 0,     0.000,     0.000, 1
 2049,'1 ',1,   2,  10,     0.267,     0.138,     0.000,     0.000,     0.000,     0.000,   1,1, 0,     0.000,     0.000, 1
 2049,'2 ',1,   2,  10,     0.318,     0.164,     0.000,     0.000,     0.000,     0.000,   1,1, 0,     0.000,     0.000, 1
 2049,'3 ',1,   2,  10,     5.778,     2.977,     0.000,     0.000,     0.000,     0.000,   1,1, 0,     0.000,     0.000, 1
 2050,'1 ',1,   2,  11,     2.011,     1.036,     0.000,     0.000,     0.000,     0.000,   1,1, 0,     0.000,     0.000, 1
 2051,'1 ',1,   2,  11,     9.818,     5.057,     0.000,     0.000,     0.000,     0.000,   1,1, 0,     0.000,     0.000, 1
 2052,'1 ',1,   2,  10,     5.202,     2.680,     0.000,     0.000,     0.000,     0.000,   1,1, 0,     0.000,     0.000, 1
 2052,'2 ',1,   2,  10,     8.458,     4.357,     0.000,     0.000,     0.000,     0.000,   1,1, 0,     0.000,     0.000, 1
 2053,'1 ',1,   2,  11,    16.023,     8.254,     0.000,     0.000,     0.000,     0.000,   1,1, 0,     0.000,     0.000, 1
 2055,'1 ',1,   2,  11,    27.291,    14.059,     0.000,     0.000,     0.000,     0.000,   1,1, 0,     0.000,     0.000, 1
 2060,'1 ',1,   2,  11,     2.087,     1.075,     0.000,     0.000,     0.000,     0.000,   1,1, 0,     0.000,     0.000, 1
 2063,'1 ',1,   2,  11,    36.089,    18.591,     0.000,     0.000,     0.000,     0.000,   1,1, 0,     0.000,     0.000, 1
 2064,'1 ',1,   2,  11,     3.871,     1.994,     0.000,     0.000,     0.000,     0.000,   1,1, 0,     0.000,     0.000, 1
 2064,'2 ',1,   2,  11,     1.655,     0.853,     0.000,     0.000,     0.000,     0.000,   1,1, 0,     0.000,     0.000, 1
 2065,'1 ',1,   2,  11,    43.098,    22.202,     0.000,     0.000,     0.000,     0.000,   1,1, 0,     0.000,     0.000, 1
 2066,'1 ',1,   2,  10,     2.228,     1.147,     0.000,     0.000,     0.000,     0.000,   1,1, 0,     0.000,     0.000, 1
 2066,'2 ',1,   2,  10,     1.398,     0.720,     0.000,     0.000,     0.000,     0.000,   1,1, 0,     0.000,     0.000, 1
 2066,'3 ',1,   2,  10,     0.287,     0.148,     0.000,     0.000,     0.000,     0.000,   1,1, 0,     0.000,     0.000, 1
 2067,'1 ',1,   2,  11,    29.682,    15.291,     0.000,     0.000,     0.000,     0.000,   1,1, 0,     0.000,     0.000, 1
 2068,'1 ',1,   2,  11,     3.168,     1.632,     0.000,     0.000,     0.000,     0.000,   1,1, 0,     0.000,     0.000, 1
 2069,'1 ',1,   2,  11,    12.058,     6.212,     0.000,     0.000,     0.000,     0.000,   1,1, 0,     0.000,     0.000, 1
 2072,'1 ',1,   2,  11,     5.338,     2.750,     0.000,     0.000,     0.000,     0.000,   1,1, 0,     0.000,     0.000, 1
 2079,'1 ',1,   2,  10,     2.463,     1.269,     0.000,     0.000,     0.000,     0.000,   1,1, 0,     0.000,     0.000, 1
 2080,'1 ',1,   2,  11,     9.313,     4.797,     0.000,     0.000,     0.000,     0.000,   1,1, 0,     0.000,     0.000, 1
 2081,'1 ',1,   2,  11,     2.455,     1.265,     0.000,     0.000,     0.000,     0.000,   1,1, 0,     0.000,     0.000, 1
 2082,'1 ',1,   2,  11,    32.467,    16.725,     0.000,     0.000,     0.000,     0.000,   1,1, 0,     0.000,     0.000, 1
 2086,'1 ',1,   2,  11,     1.206,     0.621,     0.000,     0.000,     0.000,     0.000,   1,1, 0,     0.000,     0.000, 1
 2087,'1 ',1,   2,  10,     4.343,     2.237,     0.000,     0.000,     0.000,     0.000,   1,1, 0,     0.000,     0.000, 1
 2090,'1 ',1,   2,  11,     1.333,     0.687,     0.000,     0.000,     0.000,     0.000,   1,1, 0,     0.000,     0.000, 1
 2091,'1 ',1,   2,  10,     9.375,     4.830,     0.000,     0.000,     0.000,     0.000,   1,1, 0,     0.000,     0.000, 1
 2092,'1 ',1,   2,  11,    13.259,     6.831,     0.000,     0.000,     0.000,     0.000,   1,1, 0,     0.000,     0.000, 1
 2106,'1 ',1,   2,  11,     7.922,     4.081,     0.000,     0.000,     0.000,     0.000,   1,1, 0,     0.000,     0.000, 1
 2107,'1 ',1,   2,  11,    40.783,    21.009,     0.000,     0.000,     0.000,     0.000,   1,1, 0,     0.000,     0.000, 1
 2108,'1 ',1,   2,  10,     1.180,     0.608,     0.000,     0.000,     0.000,     0.000,   1,1, 0,     0.000,     0.000, 1
 2109,'1 ',1,   2,  11,    18.595,     9.579,     0.000,     0.000,     0.000,     0.000,   1,1, 0,     0.000,     0.000, 1
 2110,'1 ',1,   2,  11,     4.724,     2.434,     0.000,     0.000,     0.000,     0.000,   1,1, 0,     0.000,     0.000, 1
 2111,'1 ',1,   2,  11,     3.851,     1.984,     0.000,     0.000,     0.000,     0.000,   1,1, 0,     0.000,     0.000, 1
 2111,'2 ',1,   2,  11,     3.823,     1.969,     0.000,     0.000,     0.000,     0.000,   1,1, 0,     0.000,     0.000, 1
 2112,'1 ',1,   2,  11,     2.498,     1.287,     0.000,     0.000,     0.000,     0.000,   1,1, 0,     0.000,     0.000, 1
 2114,'1 ',1,   2,  11,    38.927,    20.053,     0.000,     0.000,     0.000,     0.000,   1,1, 0,     0.000,     0.000, 1
 2121,'1 ',1,   2,  11,     1.284,     0.661,     0.000,     0.000,     0.000,     0.000,   1,1, 0,     0.000,     0.000, 1
 2122,'1 ',1,   2,  11,     3.698,     1.905,     0.000,     0.000,     0.000,     0.000,   1,1, 0,     0.000,     0.000, 1
 2124,'1 ',1,   2,  11,    11.707,     6.031,     0.000,     0.000,     0.000,     0.000,   1,1, 0,     0.000,     0.000, 1
 2125,'1 ',1,   2,  11,     2.231,     1.149,     0.000,     0.000,     0.000,     0.000,   1,1, 0,     0.000,     0.000, 1
 2126,'1 ',1,   2,  11,     7.829,     4.033,     0.000,     0.000,     0.000,     0.000,   1,1, 0,     0.000,     0.000, 1
 2129,'1 ',1,   2,  11,     3.648,     1.879,     0.000,     0.000,     0.000,     0.000,   1,1, 0,     0.000,     0.000, 1
 2132,'1 ',1,   2,  10,     6.567,     3.383,     0.000,     0.000,     0.000,     0.000,   1,1, 0,     0.000,     0.000, 1
 2133,'1 ',1,   2,  11,     3.123,     1.609,     0.000,     0.000,     0.000,     0.000,   1,1, 0,     0.000,     0.000, 1
 3002,'1 ',1,   3,  28,    62.073,    31.977,     0.000,     0.000,     0.000,     0.000,   1,1, 0,     0.000,     0.000, 1
 3005,'1 ',1,   3,  28,     0.436,     0.224,     0.000,     0.000,     0.000,     0.000,   1,1, 0,     0.000,     0.000, 1
 3005,'2 ',1,   3,  28,     0.454,     0.234,     0.000,     0.000,     0.000,     0.000,   1,1, 0,     0.000,     0.000, 1
 3005,'3 ',1,   3,  28,     3.148,     1.622,     0.000,     0.000,     0.000,     0.000,   1,1, 0,     0.000,     0.000, 1
 3006,'1 ',1,   3,  27,     4.041,     2.082,     0.000,     0.000,     0.000,     0.000,   1,1, 0,     0.000,     0.000, 1
 3007,'1 ',1,   3,  27,     8.230,     4.240,     0.000,     0.000,     0.000,     0.000,   1,1, 0,     0.000,     0.000, 1
 3008,'1 ',1,   3,  27,    10.448,     5.382,     0.000,     0.000,     0.000,     0.000,   1,1, 0,     0.000,     0.000, 1
 3008,'2 ',1,   3,  27,     0.447,     0.230,     0.000,     0.000,     0.000,     0.000,   1,1, 0,     0.000,     0.000, 1
 3009,'1 ',1,   3,  28,     6.897,     3.553,     0.000,     0.000,     0.000,     0.000,   1,1, 0,     0.000,     0.000, 1
 3010,'1 ',1,   3,  28,     2.569,     1.323,     0.000,     0.000,     0.000,     0.000,   1,1, 0,     0.000,     0.000, 1
 3011,'1 ',1,   3,  28,    10.440,     5.378,     0.000,     0.000,     0.000,     0.000,   1,1, 0,     0.000,     0.000, 1
 3011,'2 ',1,   3,  28,     4.486,     2.311,     0.000,     0.000,     0.000,     0.000,   1,1, 0,     0.000,     0.000, 1
 3012,'1 ',1,   3,  28,     0.310,     0.160,     0.000,     0.000,     0.000,     0.000,   1,1, 0,     0.000,     0.000, 1
 3013,'1 ',1,   3,  27,    35.506,    18.291,     0.000,     0.000,     0.000,     0.000,   1,1, 0,     0.000,     0.000, 1
 3014,'1 ',1,   3,  28,    12.101,     6.234,     0.000,     0.000,     0.000,     0.000,   1,1, 0,     0.000,     0.000, 1
 3015,'1 ',1,   3,  27,     2.950,     1.520,     0.000,     0.000,     0.000,     0.000,   1,1, 0,     0.000,     0.000, 1
 3021,'1 ',1,   3,  27,     0.289,     0.149,     0.000,     0.000,     0.000,     0.000,   1,1, 0,     0.000,     0.000, 1
 3021,'2 ',1,   3,  27,     0.779,     0.401,     0.000,     0.000,     0.000,     0.000,   1,1, 0,     0.000,     0.000, 1
 3022,'1 ',1,   3,  27,    13.525,     6.967,     0.000,     0.000,     0.000,     0.000,   1,1, 0,     0.000,     0.000, 1
 3023,'1 ',1,   3,  27,     5.724,     2.949,     0.000,     0.000,     0.000,     0.000,   1,1, 0,     0.000,     0.000, 1
 3024,'1 ',1,   3,  28,     5.572,     2.870,     0.000,     0.000,     0.000,     0.000,   1,1, 0,     0.000,     0.000, 1
 3025,'1 ',1,   3,  28,     7.521,     3.874,     0.000,     0.000,     0.000,     0.000,   1,1, 0,     0.000,     0.000, 1
 3029,'1 ',1,   3,  28,     2.676,     1.379,     0.000,     0.000,     0.000,     0.000,   1,1, 0,     0.000,     0.000, 1
 3030,'1 ',1,   3,  27,    71.346,    36.754,     0.000,     0.000,     0.000,     0.000,   1,1, 0,     0.000,     0.000, 1
 3031,'1 ',1,   3,  27,     8.103,     4.174,     0.000,     0.000,     0.000,     0.000,   1,1, 0,     0.000,     0.000, 1
 3032,'1 ',1,   3,  27,    40.075,    20.645,     0.000,     0.000,     0.000,     0.000,   1,1, 0,     0.000,     0.000, 1
 3035,'1 ',1,   3,  28,     1.906,     0.982,     0.000,     0.000,     0.000,     0.000,   1,1, 0,     0.000,     0.000, 1
 3036,'1 ',1,   3,  28,     0.714,     0.368,     0.000,     0.000,     0.000,     0.000,   1,1, 0,     0.000,     0.000, 1
 3036,'2 ',1,   3,  28,     2.477,     1.276,     0.000,     0.000,     0.000,     0.000,   1,1, 0,     0.000,     0.000, 1
 3040,'1 ',1,   3,  27,     8.034,     4.139,     0.000,     0.000,     0.000,     0.000,   1,1, 0,     0.000,     0.000, 1
 3042,'1 ',1,   3,  27,     2.759,     1.421,     0.000,     0.000,     0.000,     0.000,   1,1, 0,     0.000,     0.000, 1
 3042,'2 ',1,   3,  27,     2.056,     1.059,     0.000,     0.000,     0.000,     0.000,   1,1, 0,     0.000,     0.000, 1
 3049,'1 ',1,   3,  27,     5.821,     2.999,     0.000,     0.000,     0.000,     0.000,   1,1, 0,     0.000,     0.000, 1
 3051,'1 ',1,   3,  28,     0.464,     0.239,     0.000,     0.000,     0.000,     0.000,   1,1, 0,     0.000,     0.000, 1
 3051,'2 ',1,   3,  28,    79.446,    40.927,     0.000,     0.000,     0.000,     0.000,   1,1, 0,     0.000,     0.000, 1
 3052,'1 ',1,   3,  28,     4.442,     2.288,     0.000,     0.000,     0.000,     0.000,   1,1, 0,     0.000,     0.000, 1
 3066,'1 ',1,   3,  28,    12.119,     6.243,     0.000,     0.000,     0.000,     0.000,   1,1, 0,     0.000,     0.000, 1
 3069,'1 ',1,   3,  27,     2.097,     1.080,     0.000,     0.000,     0.000,     0.000,   1,1, 0,     0.000,     0.000, 1
 3072,'1 ',1,   3,  27,     3.292,     1.696,     0.000,     0.000,     0.000,     0.000,   1,1, 0,     0.000,     0.000, 1
 3075,'1 ',1,   3,  28,     6.701,     3.452,     0.000,     0.000,     0.000,     0.000,   1,1, 0,     0.000,     0.000, 1
 3076,'1 ',1,   3,  28,     5.937,     3.058,     0.000,     0.000,     0.000,     0.000,   1,1, 0,     0.000,     0.000, 1
 3077,'1 ',1,   3,  27,    37.760,    19.452,     0.000,     0.000,     0.000,     0.000,   1,1, 0,     0.000,     0.000, 1
 3093,'1 ',1,   3,  28,     2.775,     1.430,     0.000,     0.000,     0.000,     0.000,   1,1, 0,     0.000,     0.000, 1
 3099,'1 ',1,   3,  27,     6.643,     3.422,     0.000,     0.000,     0.000,     0.000,   1,1, 0,     0.000,     0.000, 1
 3100,'1 ',1,   3,  27,     4.689,     2.416,     0.000,     0.000,     0.000,     0.000,   1,1, 0,     0.000,     0.000, 1
 3101,'1 ',1,   3,  28,     0.058,     0.030,     0.000,     0.000,     0.000,     0.000,   1,1, 0,     0.000,     0.000, 1
 3101,'2 ',1,   3,  28,     1.536,     0.791,     0.000,     0.000,     0.000,     0.000,   1,1, 0,     0.000,     0.000, 1
 3101,'3 ',1,   3,  28,     3.594,     1.851,     0.000,     0.000,     0.000,     0.000,   1,1, 0,     0.000,     0.000, 1
 3102,'1 ',1,   3,  27,    41.390,    21.322,     0.000,     0.000,     0.000,     0.000,   1,1, 0,     0.000,     0.000, 1
 3103,'1 ',1,   3,  27,     0.183,     0.094,     0.000,     0.000,     0.000,     0.000,   1,1, 0,     0.000,     0.000, 1
 3103,'2 ',1,   3,  27,    21.442,    11.046,     0.000,     0.000,     0.000,     0.000,   1,1, 0,     0.000,     0.000, 1
...
0 / END OF LOAD DATA, BEGIN FIXED SHUNT DATA
@!   I,'ID',STATUS,  GL,        BL
  2017,'2 ', 1,     0.000,  -100.000
  2096,'2 ', 1,     0.000,  -100.000
  3051,'2 ', 0,     0.000,    80.000
  8005,'1 ', 0,     0.000,   100.000
0 / END OF FIXED SHUNT DATA, BEGIN GENERATOR DATA
@!   I,'ID',      PG,        QG,        QB,     VS,    IREG,     MBASE,     ZR,         ZX,         RT,         XT,     GTAP,STAT, RMPCT,      PT,        PB,    O1,  F1,    O2,  F2,    O3,  F3,    O4,  F4,WMOD,  WPF
 1004,'1 ',   158.250,   -30.380,    44.940,   -30.380,1.01000,    0,   253.200,   0.00000,   1.00000,   0.00000,   0.00000,1.00000,1,  100.0,   211.000,    63.300,   1,1.0000,   0,1.0000,   0,1.0000,   0,1.0000,1, 1.0000
 1006,'1 ',    25.730,    -4.940,     7.310,    -4.940,1.00000,    0,    41.160,   0.00000,   1.00000,   0.00000,   0.00000,1.00000,1,  100.0,    34.300,    10.290,   1,1.0000,   0,1.0000,   0,1.0000,   0,1.0000,1, 1.0000
 1009,'1 ',    61.870,   -11.880,    17.570,   -11.880,1.00000,    0,    99.000,   0.00000,   1.00000,   0.00000,   0.00000,1.00000,1,  100.0,    82.500,    24.750,   1,1.0000,   0,1.0000,   0,1.0000,   0,1.0000,1, 1.0000
 1011,'1 ',    10.000,     0.000,     0.000,     0.000,1.00000,    0,    12.000,   0.00000,   1.00000,   0.00000,   0.00000,1.00000,1,  100.0,    10.000,     3.000,   1,1.0000,   0,1.0000,   0,1.0000,   0,1.0000,1, 1.0000
 1021,'1 ',   149.630,   -28.730,    42.490,   -28.730,1.00000,    0,   239.400,   0.00000,   1.00000,   0.00000,   0.00000,1.00000,1,  100.0,   199.500,    59.850,   1,1.0000,   0,1.0000,   0,1.0000,   0,1.0000,1, 1.0000
 1023,'1 ',   135.000,     0.968,    38.340,   -25.920,1.01000,    0,   216.000,   0.00000,   1.00000,   0.00000,   0.00000,1.00000,1,  100.0,   180.000,    54.000,   1,1.0000,   0,1.0000,   0,1.0000,   0,1.0000,1, 1.0000
 1026,'1 ',    93.150,    -6.356,    26.450,   -17.880,1.00000,    0,   149.040,   0.00000,   1.00000,   0.00000,   0.00000,1.00000,1,  100.0,   124.200,    37.260,   1,1.0000,   0,1.0000,   0,1.0000,   0,1.0000,1, 1.0000
 1033,'1 ',   208.500,   -40.030,    59.210,   -40.030,1.00000,    0,   333.600,   0.00000,   1.00000,   0.00000,   0.00000,1.00000,1,  100.0,   278.000,    83.400,   1,1.0000,   0,1.0000,   0,1.0000,   0,1.0000,1, 1.0000
 1035,'1 ',    67.500,   -12.803,    19.170,   -12.960,1.00000,    0,   108.000,   0.00000,   1.00000,   0.00000,   0.00000,1.00000,1,  100.0,    90.000,    27.000,   1,1.0000,   0,1.0000,   0,1.0000,   0,1.0000,1, 1.0000
 1039,'1 ',   110.630,   -21.240,    31.420,   -21.240,1.00000,    0,   177.000,   0.00000,   1.00000,   0.00000,   0.00000,1.00000,1,  100.0,   147.500,    44.250,   1,1.0000,   0,1.0000,   0,1.0000,   0,1.0000,1, 1.0000
 1042,'1 ',     0.000,   -10.549,    25.960,   -17.550,1.00000,    0,   146.280,   0.00000,   1.00000,   0.00000,   0.00000,1.00000,0,  100.0,   121.900,    36.570,   1,1.0000,   0,1.0000,   0,1.0000,   0,1.0000,1, 1.0000
 1043,'1 ',    44.100,    -5.704,    12.520,    -8.470,1.00000,    0,    70.560,   0.00000,   1.00000,   0.00000,   0.00000,1.00000,1,  100.0,    58.800,    17.640,   1,1.0000,   0,1.0000,   0,1.0000,   0,1.0000,1, 1.0000
 1048,'1 ',     0.000,     0.000,   165.530,   -36.100,1.00000,    0,   390.240,   0.00000,   0.35000,   0.00000,   0.00000,1.00000,0,  100.0,   325.200,    97.560,   1,1.0000,   0,1.0000,   0,1.0000,   0,1.0000,0, 1.0000
 1049,'1 ',     0.000,     0.000,   165.530,   -36.100,1.00000,    0,   390.240,   0.00000,   0.23000,   0.00000,   0.00000,1.00000,0,  100.0,   325.200,    97.560,   1,1.0000,   0,1.0000,   0,1.0000,   0,1.0000,0, 1.0000
 1050,'1 ',    83.044,    -9.920,    45.500,    -9.920,1.00000,    0,   107.280,   0.00000,   0.15000,   0.00000,   0.00000,1.00000,1,  100.0,    89.400,    26.820,   1,1.0000,   0,1.0000,   0,1.0000,   0,1.0000,0, 1.0000
 1051,'1 ',    83.044,    -8.711,    45.500,    -9.920,1.00000,    0,   107.280,   0.00000,   0.31000,   0.00000,   0.00000,1.00000,1,  100.0,    89.400,    26.820,   1,1.0000,   0,1.0000,   0,1.0000,   0,1.0000,0, 1.0000
 1052,'1 ',     0.000,    -9.920,    45.500,    -9.920,1.00000,    0,   107.280,   0.00000,   0.26000,   0.00000,   0.00000,1.00000,0,  100.0,    89.400,    26.820,   1,1.0000,   0,1.0000,   0,1.0000,   0,1.0000,0, 1.0000
 1053,'1 ',     0.000,     0.000,    91.010,   -19.850,1.00000,    0,   214.560,   0.00000,   0.28000,   0.00000,   0.00000,1.00000,0,  100.0,   178.800,    53.640,   1,1.0000,   0,1.0000,   0,1.0000,   0,1.0000,0, 1.0000
 1057,'1 ',     0.000,    -7.656,    25.560,   -17.280,1.00000,    0,   144.000,   0.00000,   1.00000,   0.00000,   0.00000,1.00000,0,  100.0,   120.000,    36.000,   1,1.0000,   0,1.0000,   0,1.0000,   0,1.0000,1, 1.0000
 1059,'1 ',     0.000,     0.000,     2.850,    -0.620,1.04000,    0,     6.720,   0.00000,   0.31000,   0.00000,   0.00000,1.00000,0,  100.0,     5.600,     1.680,   1,1.0000,   0,1.0000,   0,1.0000,   0,1.0000,0, 1.0000
 1060,'1 ',     0.000,     0.000,     1.020,    -0.220,1.04000,    0,     2.400,   0.00000,   0.18000,   0.00000,   0.00000,1.00000,0,  100.0,     2.000,     0.600,   1,1.0000,   0,1.0000,   0,1.0000,   0,1.0000,0, 1.0000
 1062,'1 ',     0.000,     0.000,     0.000,     0.000,1.01000,    0,     1.800,   0.00000,   1.00000,   0.00000,   0.00000,1.00000,0,  100.0,     1.500,     0.450,   1,1.0000,   0,1.0000,   0,1.0000,   0,1.0000,1, 1.0000
 1063,'1 ',     0.000,     0.000,     0.000,     0.000,1.01000,    0,   276.000,   0.00000,   1.00000,   0.00000,   0.00000,1.00000,0,  100.0,   230.000,    69.000,   1,1.0000,   0,1.0000,   0,1.0000,   0,1.0000,1, 1.0000
 1066,'1 ',   106.880,    -5.123,    30.350,   -20.520,1.00000,    0,   171.000,   0.00000,   1.00000,   0.00000,   0.00000,1.00000,1,  100.0,   142.500,    42.750,   1,1.0000,   0,1.0000,   0,1.0000,   0,1.0000,1, 1.0000
 1070,'1 ',   120.380,    17.655,    34.190,   -23.110,1.04000,    0,   192.600,   0.00000,   1.00000,   0.00000,   0.00000,1.00000,1,  100.0,   160.500,    48.150,   1,1.0000,   0,1.0000,   0,1.0000,   0,1.0000,1, 1.0000
 1072,'1 ',   178.471,    13.343,    97.800,   -21.330,1.01000,    0,   230.560,   0.00000,   0.29000,   0.00000,   0.00000,1.00000,1,  100.0,   192.130,    57.640,   1,1.0000,   0,1.0000,   0,1.0000,   0,1.0000,0, 1.0000
 1073,'1 ',   178.471,    22.945,    97.800,   -21.330,1.01000,    0,   230.560,   0.00000,   0.31000,   0.00000,   0.00000,1.00000,1,  100.0,   192.130,    57.640,   1,1.0000,   0,1.0000,   0,1.0000,   0,1.0000,0, 1.0000
 1074,'1 ',     0.000,     1.976,    97.800,   -21.330,1.01000,    0,   230.560,   0.00000,   0.40000,   0.00000,   0.00000,1.00000,0,  100.0,   192.130,    57.640,   1,1.0000,   0,1.0000,   0,1.0000,   0,1.0000,0, 1.0000
 1075,'1 ',     0.000,     2.466,    97.800,   -21.330,1.01000,    0,   230.560,   0.00000,   0.27000,   0.00000,   0.00000,1.00000,0,  100.0,   192.130,    57.640,   1,1.0000,   0,1.0000,   0,1.0000,   0,1.0000,0, 1.0000
 1076,'1 ',     0.000,     0.000,    97.800,   -21.330,1.01000,    0,   230.560,   0.00000,   0.13000,   0.00000,   0.00000,1.00000,0,  100.0,   192.130,    57.640,   1,1.0000,   0,1.0000,   0,1.0000,   0,1.0000,0, 1.0000
 1077,'1 ',     0.000,     0.000,    97.800,   -21.330,1.01000,    0,   230.560,   0.00000,   0.39000,   0.00000,   0.00000,1.00000,0,  100.0,   192.130,    57.640,   1,1.0000,   0,1.0000,   0,1.0000,   0,1.0000,0, 1.0000
 1078,'1 ',    88.711,     9.869,    48.610,   -10.600,1.01000,    0,   114.600,   0.00000,   0.12000,   0.00000,   0.00000,1.00000,1,  100.0,    95.500,    28.650,   1,1.0000,   0,1.0000,   0,1.0000,   0,1.0000,0, 1.0000
 1079,'1 ',    87.007,   -10.600,    48.610,   -10.600,1.01000,    0,   114.600,   0.00000,   0.44000,   0.00000,   0.00000,1.00000,0,  100.0,    95.500,    28.650,   1,1.0000,   0,1.0000,   0,1.0000,   0,1.0000,0, 1.0000
 1080,'1 ',    38.466,     0.391,    48.610,   -10.600,1.01000,    0,   114.600,   0.00000,   0.13000,   0.00000,   0.00000,1.00000,0,  100.0,    95.500,    28.650,   1,1.0000,   0,1.0000,   0,1.0000,   0,1.0000,0, 1.0000
 1081,'1 ',     0.000,     0.000,   145.830,   -31.800,1.01000,    0,   343.800,   0.00000,   0.15000,   0.00000,   0.00000,1.00000,0,  100.0,   286.500,    85.950,   1,1.0000,   0,1.0000,   0,1.0000,   0,1.0000,0, 1.0000
 1082,'1 ',   112.500,   -21.600,    31.950,   -21.600,1.00000,    0,   180.000,   0.00000,   1.00000,   0.00000,   0.00000,1.00000,1,  100.0,   150.000,    45.000,   1,1.0000,   0,1.0000,   0,1.0000,   0,1.0000,1, 1.0000
 1084,'1 ',    86.620,    24.600,    24.600,   -16.630,1.04000,    0,   138.600,   0.00000,   1.00000,   0.00000,   0.00000,1.00000,1,  100.0,   115.500,    34.650,   1,1.0000,   0,1.0000,   0,1.0000,   0,1.0000,1, 1.0000
 1088,'1 ',    56.250,    -6.955,    15.970,   -10.800,1.00000,    0,    90.000,   0.00000,   1.00000,   0.00000,   0.00000,1.00000,1,  100.0,    75.000,    22.500,   1,1.0000,   0,1.0000,   0,1.0000,   0,1.0000,1, 1.0000
 1090,'1 ',   114.370,     8.601,    32.480,   -21.960,1.02000,    0,   183.000,   0.00000,   1.00000,   0.00000,   0.00000,1.00000,1,  100.0,   152.500,    45.750,   1,1.0000,   0,1.0000,   0,1.0000,   0,1.0000,0, 1.0000
 1090,'2 ',    27.000,     7.670,     7.670,    -5.180,1.02000,    0,    43.200,   0.00000,   1.00000,   0.00000,   0.00000,1.00000,1,  100.0,    36.000,    10.800,   1,1.0000,   0,1.0000,   0,1.0000,   0,1.0000,0, 1.0000
 2004,'1 ',     0.000,     0.000,   199.430,   -43.490,1.02000,    0,   470.160,   0.00000,   0.39000,   0.00000,   0.00000,1.00000,0,  100.0,   391.800,   117.540,   1,1.0000,   0,1.0000,   0,1.0000,   0,1.0000,0, 1.0000
 2005,'1 ',     0.000,     0.000,   199.430,   -43.490,1.02000,    0,   470.160,   0.00000,   0.23000,   0.00000,   0.00000,1.00000,0,  100.0,   391.800,   117.540,   1,1.0000,   0,1.0000,   0,1.0000,   0,1.0000,0, 1.0000
 2006,'1 ',     0.000,     0.000,   199.430,   -43.490,1.02000,    0,   470.160,   0.00000,   0.47000,   0.00000,   0.00000,1.00000,0,  100.0,   391.800,   117.540,   1,1.0000,   0,1.0000,   0,1.0000,   0,1.0000,0, 1.0000
 2013,'1 ',   150.450,   -28.890,    42.730,   -28.890,1.00000,    0,   240.720,   0.00000,   1.00000,   0.00000,   0.00000,1.00000,1,  100.0,   200.600,    60.180,   1,1.0000,   0,1.0000,   0,1.0000,   0,1.0000,1, 1.0000
 2019,'1 ',     0.000,    46.430,    46.430,   -31.390,1.04000,    0,   261.600,   0.00000,   1.00000,   0.00000,   0.00000,1.00000,0,  100.0,   218.000,    65.400,   1,1.0000,   0,1.0000,   0,1.0000,   0,1.0000,1, 1.0000
 2023,'1 ',    33.564,    -9.250,    42.420,    -9.250,1.02000,    0,   100.000,   0.00000,   0.14000,   0.00000,   0.00000,1.00000,0,  100.0,    83.330,    25.000,   1,1.0000,   0,1.0000,   0,1.0000,   0,1.0000,0, 1.0000
 2024,'1 ',   154.821,   -18.500,    84.830,   -18.500,1.02000,    0,   200.000,   0.00000,   0.31000,   0.00000,   0.00000,1.00000,1,  100.0,   166.670,    50.000,   1,1.0000,   0,1.0000,   0,1.0000,   0,1.0000,0, 1.0000
 2042,'1 ',    59.700,   -11.460,    16.950,   -11.460,1.01000,    0,    95.520,   0.00000,   1.00000,   0.00000,   0.00000,1.00000,1,  100.0,    79.600,    23.880,   1,1.0000,   0,1.0000,   0,1.0000,   0,1.0000,1, 1.0000
 2056,'1 ',     0.000,     0.000,     2.800,    -0.730,0.99000,    0,     7.200,   0.00000,   0.31000,   0.00000,   0.00000,1.00000,0,  100.0,     6.000,     1.800,   1,1.0000,   0,1.0000,   0,1.0000,   0,1.0000,0, 1.0000
 2057,'1 ',   420.465,   -87.840,   335.520,   -87.840,0.99000,    0,   864.000,   0.00000,   0.36000,   0.00000,   0.00000,1.00000,0,  100.0,   720.000,   216.000,   1,1.0000,   0,1.0000,   0,1.0000,   0,1.0000,0, 1.0000
 2059,'1 ',    60.000,   -11.520,    17.040,   -11.520,1.00000,    0,    96.000,   0.00000,   1.00000,   0.00000,   0.00000,1.00000,1,  100.0,    80.000,    24.000,   1,1.0000,   0,1.0000,   0,1.0000,   0,1.0000,1, 1.0000
 2062,'1 ',   101.550,   -13.545,    28.840,   -19.500,1.02000,    0,   162.480,   0.00000,   1.00000,   0.00000,   0.00000,1.00000,1,  100.0,   135.400,    40.620,   1,1.0000,   0,1.0000,   0,1.0000,   0,1.0000,1, 1.0000
...